data/radial_test/case94pi.m
function mpc = case94pi
%CASE94PI

%% MATPOWER Case Format : Version 2
mpc.version = '2';

%%-----  Power Flow Data  -----%%
%% system MVA base
mpc.baseMVA = 1;

%% bus data
%	bus_i	type	Pd	Qd	Gs	Bs	area	Vm	Va	baseKV	zone	Vmax	Vmin
mpc.bus = [
	1	3	0	0	0	0	1	1	0	15	1	1	1;
	2	1	0.0225	0.0109	0	0	1	1	0	15	1	1.1	0.9;
	3	1	0.2403	0.1164	0	0	1	1	0	15	1	1.1	0.9;
	4	1	0.0243	0.0118	0	0	1	1	0	15	1	1.1	0.9;
	5	1	0	0	0	0	1	1	0	15	1	1.1	0.9;
	6	1	0	0	0	0	1	1	0	15	1	1.1	0.9;
	7	1	0.0288	0.014	0	0	1	1	0	15	1	1.1	0.9;
	8	1	0	0	0	0	1	1	0	15	1	1.1	0.9;
	9	1	0	0	0	0	1	1	0	15	1	1.1	0.9;
	10	1	0	0	0	0	1	1	0	15	1	1.1	0.9;
	11	1	0	0	0	0	1	1	0	15	1	1.1	0.9;
	12	1	0	0	0	0	1	1	0	15	1	1.1	0.9;
	13	1	0	0	0	0	1	1	0	15	1	1.1	0.9;
	14	1	0.0576	0.0279	0	0	1	1	0	15	1	1.1	0.9;
	15	1	0	0	0	0	1	1	0	15	1	1.1	0.9;
	16	1	0	0	0	0	1	1	0	15	1	1.1	0.9;
	17	1	0.0189	0.0092	0	0	1	1	0	15	1	1.1	0.9;
	18	1	0	0	0	0	1	1	0	15	1	1.1	0.9;
	19	1	0	0	0	0	1	1	0	15	1	1.1	0.9;
	20	1	0.0558	0.027	0	0	1	1	0	15	1	1.1	0.9;
	21	1	0.0405	0.0196	0	0	1	1	0	15	1	1.1	0.9;
	22	1	0	0	0	0	1	1	0	15	1	1.1	0.9;
	23	1	0.054	0.0262	0	0	1	1	0	15	1	1.1	0.9;
	24	1	0	0	0	0	1	1	0	15	1	1.1	0.9;
	25	1	0	0	0	0	1	1	0	15	1	1.1	0.9;
	26	1	0.0468	0.0227	0	0	1	1	0	15	1	1.1	0.9;
	27	1	0	0	0	0	1	1	0	15	1	1.1	0.9;
	28	1	0	0	0	0	1	1	0	15	1	1.1	0.9;
	29	1	0.0135	0.0065	0	0	1	1	0	15	1	1.1	0.9;
	30	1	0.0036	0.0017	0	0	1	1	0	15	1	1.1	0.9;
	31	1	0.018	0.0087	0	0	1	1	0	15	1	1.1	0.9;
	32	1	0.0216	0.0105	0	0	1	1	0	15	1	1.1	0.9;
	33	1	0.009	0.0044	0	0	1	1	0	15	1	1.1	0.9;
	34	1	0.0648	0.0314	0	0	1	1	0	15	1	1.1	0.9;
	35	1	0.0657	0.0318	0	0	1	1	0	15	1	1.1	0.9;
	36	1	0.0594	0.0288	0	0	1	1	0	15	1	1.1	0.9;
	37	1	0.0135	0.0065	0	0	1	1	0	15	1	1.1	0.9;
	38	1	0.1611	0.078	0	0	1	1	0	15	1	1.1	0.9;
	39	1	0.0261	0.0126	0	0	1	1	0	15	1	1.1	0.9;
	40	1	0.1341	0.065	0	0	1	1	0	15	1	1.1	0.9;
	41	1	0.0855	0.0414	0	0	1	1	0	15	1	1.1	0.9;
	42	1	0.0414	0.0201	0	0	1	1	0	15	1	1.1	0.9;
	43	1	0.0414	0.0201	0	0	1	1	0	15	1	1.1	0.9;
	44	1	0.0414	0.0201	0	0	1	1	0	15	1	1.1	0.9;
	45	1	0.0216	0.0105	0	0	1	1	0	15	1	1.1	0.9;
	46	1	0.0252	0.0122	0	0	1	1	0	15	1	1.1	0.9;
	47	1	0.0459	0.0222	0	0	1	1	0	15	1	1.1	0.9;
	48	1	0.0369	0.0179	0	0	1	1	0	15	1	1.1	0.9;
	49	1	0.0639	0.031	0	0	1	1	0	15	1	1.1	0.9;
	50	1	0.0684	0.0331	0	0	1	1	0	15	1	1.1	0.9;
	51	1	0.0279	0.0135	0	0	1	1	0	15	1	1.1	0.9;
	52	1	0.081	0.0392	0	0	1	1	0	15	1	1.1	0.9;
	53	1	0.0693	0.0336	0	0	1	1	0	15	1	1.1	0.9;
	54	1	0.0621	0.0301	0	0	1	1	0	15	1	1.1	0.9;
	55	1	0.0351	0.017	0	0	1	1	0	15	1	1.1	0.9;
	56	1	0.2052	0.0994	0	0	1	1	0	15	1	1.1	0.9;
	57	1	0.0315	0.0153	0	0	1	1	0	15	1	1.1	0.9;
	58	1	0.5211	0.2524	0	0	1	1	0	15	1	1.1	0.9;
	59	1	0.2124	0.1029	0	0	1	1	0	15	1	1.1	0.9;
	60	1	0.0396	0.0192	0	0	1	1	0	15	1	1.1	0.9;
	61	1	0.045	0.0218	0	0	1	1	0	15	1	1.1	0.9;
	62	1	0.0171	0.0083	0	0	1	1	0	15	1	1.1	0.9;
	63	1	0.0216	0.0105	0	0	1	1	0	15	1	1.1	0.9;
	64	1	0.0351	0.017	0	0	1	1	0	15	1	1.1	0.9;
	65	1	0.0702	0.034	0	0	1	1	0	15	1	1.1	0.9;
	66	1	0.0342	0.0166	0	0	1	1	0	15	1	1.1	0.9;
	67	1	0.0225	0.0109	0	0	1	1	0	15	1	1.1	0.9;
	68	1	0.0459	0.0222	0	0	1	1	0	15	1	1.1	0.9;
	69	1	0.0333	0.0161	0	0	1	1	0	15	1	1.1	0.9;
	70	1	0.0369	0.0179	0	0	1	1	0	15	1	1.1	0.9;
	71	1	0.045	0.0218	0	0	1	1	0	15	1	1.1	0.9;
	72	1	0.0756	0.0366	0	0	1	1	0	15	1	1.1	0.9;
	73	1	0.0675	0.0327	0	0	1	1	0	15	1	1.1	0.9;
	74	1	0.0279	0.0135	0	0	1	1	0	15	1	1.1	0.9;
	75	1	0.0387	0.0187	0	0	1	1	0	15	1	1.1	0.9;
	76	1	0.0531	0.0257	0	0	1	1	0	15	1	1.1	0.9;
	77	1	0.0657	0.0318	0	0	1	1	0	15	1	1.1	0.9;
	78	1	0.063	0.0305	0	0	1	1	0	15	1	1.1	0.9;
	79	1	0.0675	0.0327	0	0	1	1	0	15	1	1.1	0.9;
	80	1	0.045	0.0218	0	0	1	1	0	15	1	1.1	0.9;
	81	1	0.009	0.0044	0	0	1	1	0	15	1	1.1	0.9;
	82	1	0.0162	0.0078	0	0	1	1	0	15	1	1.1	0.9;
	83	1	0.0675	0.0327	0	0	1	1	0	15	1	1.1	0.9;
	84	1	0.2961	0.1434	0	0	1	1	0	15	1	1.1	0.9;
	85	1	0.072	0.0349	0	0	1	1	0	15	1	1.1	0.9;
	86	1	0.0765	0.0371	0	0	1	1	0	15	1	1.1	0.9;
	87	1	0.0909	0.044	0	0	1	1	0	15	1	1.1	0.9;
	88	1	0.072	0.0349	0	0	1	1	0	15	1	1.1	0.9;
	89	1	0.063	0.0305	0	0	1	1	0	15	1	1.1	0.9;
	90	1	0.0216	0.0105	0	0	1	1	0	15	1	1.1	0.9;
	91	1	0.0369	0.0179	0	0	1	1	0	15	1	1.1	0.9;
	92	1	0.0207	0.01	0	0	1	1	0	15	1	1.1	0.9;
	93	1	0.0171	0.0083	0	0	1	1	0	15	1	1.1	0.9;
	94	1	0.09	0.0436	0	0	1	1	0	15	1	1.1	0.9;
];

%% generator data
%	bus	Pg	Qg	Qmax	Qmin	Vg	mBase	status	Pmax	Pmin	Pc1	Pc2	Qc1min	Qc1max	Qc2min	Qc2max	ramp_agc	ramp_10	ramp_30	ramp_q	apf
mpc.gen = [
	1	0	0	10	-10	1	100	1	10	0	0	0	0	0	0	0	0	0	0	0	0;
];

%% branch data
%	fbus	tbus	r	x	b	rateA	rateB	rateC	ratio	angle	status	angmin	angmax
mpc.branch = [
	1	2	0.000497777778	0.000832444444	0	0	0	0	0	0	1	-360	360;
	2	3	0.000339111111	0.000566222222	0	0	0	0	0	0	1	-360	360;
	3	4	0.000840444444	0.00140488889	0	0	0	0	0	0	1	-360	360;
	4	5	0.000996888889	0.00166622222	0	0	0	0	0	0	1	-360	360;
	5	6	0.00114266667	0.00190977778	0	0	0	0	0	0	1	-360	360;
	6	7	0.000595555556	0.000995111111	0	0	0	0	0	0	1	-360	360;
	7	8	0.00132711111	0.00221822222	0	0	0	0	0	0	1	-360	360;
	8	9	0.000868	0.00145111111	0	0	0	0	0	0	1	-360	360;
	9	10	0.00226533333	0.00378622222	0	0	0	0	0	0	1	-360	360;
	10	11	0.00680133333	0.00671155556	0	0	0	0	0	0	1	-360	360;
	11	12	0.000839555556	0.000828444444	0	0	0	0	0	0	1	-360	360;
	12	13	0.000807111111	0.000796888889	0	0	0	0	0	0	1	-360	360;
	13	14	0.000293777778	0.000290222222	0	0	0	0	0	0	1	-360	360;
	14	15	0.00182888889	0.00180488889	0	0	0	0	0	0	1	-360	360;
	15	16	0.00114844444	0.00113333333	0	0	0	0	0	0	1	-360	360;
	16	17	0.000903555556	0.000891555556	0	0	0	0	0	0	1	-360	360;
	17	18	0.00321911111	0.00317688889	0	0	0	0	0	0	1	-360	360;
	18	19	0.000960888889	0.000948444444	0	0	0	0	0	0	1	-360	360;
	19	20	0.00155555556	0.00153511111	0	0	0	0	0	0	1	-360	360;
	20	21	0.00656666667	0.00172933333	0	0	0	0	0	0	1	-360	360;
	21	22	0.002	0.000526666667	0	0	0	0	0	0	1	-360	360;
	22	23	0.00342666667	0.000902222222	0	0	0	0	0	0	1	-360	360;
	23	24	0.00393333333	0.001036	0	0	0	0	0	0	1	-360	360;
	24	25	0.00440666667	0.00116044444	0	0	0	0	0	0	1	-360	360;
	25	26	0.00170666667	0.000449333333	0	0	0	0	0	0	1	-360	360;
	26	27	0.00322	0.000848	0	0	0	0	0	0	1	-360	360;
	27	28	0.00526666667	0.00138711111	0	0	0	0	0	0	1	-360	360;
	28	29	0.00549022222	0.00306622222	0	0	0	0	0	0	1	-360	360;
	29	30	0.00158088889	0.000883111111	0	0	0	0	0	0	1	-360	360;
	30	31	0.00421955556	0.00151377778	0	0	0	0	0	0	1	-360	360;
	31	32	0.00306622222	0.00171244444	0	0	0	0	0	0	1	-360	360;
	32	33	0.00698088889	0.00389911111	0	0	0	0	0	0	1	-360	360;
	5	34	0.00562444444	0.00201777778	0	0	0	0	0	0	1	-360	360;
	5	35	0.000750222222	0.000419111111	0	0	0	0	0	0	1	-360	360;
	35	36	0.00121822222	0.000680444444	0	0	0	0	0	0	1	-360	360;
	36	37	0.00113422222	0.000633333333	0	0	0	0	0	0	1	-360	360;
	6	38	0.00185111111	0.00103377778	0	0	0	0	0	0	1	-360	360;
	6	39	0.00659333333	0.00173644444	0	0	0	0	0	0	1	-360	360;
	39	40	0.008	0.00210666667	0	0	0	0	0	0	1	-360	360;
	40	41	0.00230088889	0.00128533333	0	0	0	0	0	0	1	-360	360;
	41	42	0.00317688889	0.00177422222	0	0	0	0	0	0	1	-360	360;
	8	43	0.0047	0.00123777778	0	0	0	0	0	0	1	-360	360;
	43	44	0.00231022222	0.00129022222	0	0	0	0	0	0	1	-360	360;
	44	45	0.00148488889	0.000829333333	0	0	0	0	0	0	1	-360	360;
	9	46	0.00155111111	0.000866222222	0	0	0	0	0	0	1	-360	360;
	10	47	0.00256488889	0.00143244444	0	0	0	0	0	0	1	-360	360;
	47	48	0.00159911111	0.000892888889	0	0	0	0	0	0	1	-360	360;
	48	49	0.00341688889	0.00190844444	0	0	0	0	0	0	1	-360	360;
	49	50	0.00115511111	0.000644888889	0	0	0	0	0	0	1	-360	360;
	50	51	0.00384622222	0.002148	0	0	0	0	0	0	1	-360	360;
	10	52	0.00233244444	0.00230177778	0	0	0	0	0	0	1	-360	360;
	52	53	0.000772	0.000761777778	0	0	0	0	0	0	1	-360	360;
	53	54	0.00273244444	0.00269688889	0	0	0	0	0	0	1	-360	360;
	54	55	0.00088	0.000868444444	0	0	0	0	0	0	1	-360	360;
	55	56	0.00088	0.000868444444	0	0	0	0	0	0	1	-360	360;
	56	57	0.00126666667	0.00125022222	0	0	0	0	0	0	1	-360	360;
	57	58	0.000635111111	0.000626666667	0	0	0	0	0	0	1	-360	360;
	58	59	0.00151511111	0.000846222222	0	0	0	0	0	0	1	-360	360;
	59	60	0.00163511111	0.000913333333	0	0	0	0	0	0	1	-360	360;
	60	61	0.001596	0.000891555556	0	0	0	0	0	0	1	-360	360;
	61	62	0.00155688889	0.000869777778	0	0	0	0	0	0	1	-360	360;
	62	63	0.00187511111	0.00104711111	0	0	0	0	0	0	1	-360	360;
	63	64	0.00683555556	0.002452	0	0	0	0	0	0	1	-360	360;
	64	65	0.00435022222	0.00156044444	0	0	0	0	0	0	1	-360	360;
	65	66	0.00662711111	0.00237733333	0	0	0	0	0	0	1	-360	360;
	11	67	0.00430666667	0.00113422222	0	0	0	0	0	0	1	-360	360;
	67	68	0.00298	0.000784888889	0	0	0	0	0	0	1	-360	360;
	12	69	0.00193511111	0.00108088889	0	0	0	0	0	0	1	-360	360;
	13	70	0.00205822222	0.00114933333	0	0	0	0	0	0	1	-360	360;
	70	71	0.00120311111	0.000672	0	0	0	0	0	0	1	-360	360;
	15	72	0.00297022222	0.00165866667	0	0	0	0	0	0	1	-360	360;
	72	73	0.00378888889	0.00211644444	0	0	0	0	0	0	1	-360	360;
	16	74	0.00147288889	0.000822666667	0	0	0	0	0	0	1	-360	360;
	18	75	0.0018	0.00100533333	0	0	0	0	0	0	1	-360	360;
	19	76	0.00194088889	0.001084	0	0	0	0	0	0	1	-360	360;
	19	77	0.00151822222	0.000848	0	0	0	0	0	0	1	-360	360;
	77	78	0.000939111111	0.000524444444	0	0	0	0	0	0	1	-360	360;
	78	79	0.00499955556	0.00179333333	0	0	0	0	0	0	1	-360	360;
	79	80	0.00521688889	0.00291377778	0	0	0	0	0	0	1	-360	360;
	80	81	0.00275111111	0.00153644444	0	0	0	0	0	0	1	-360	360;
	81	82	0.00252622222	0.00141066667	0	0	0	0	0	0	1	-360	360;
	20	83	0.00373022222	0.00133822222	0	0	0	0	0	0	1	-360	360;
	83	84	0.000948	0.000529333333	0	0	0	0	0	0	1	-360	360;
	84	85	0.00162	0.000904888889	0	0	0	0	0	0	1	-360	360;
	85	86	0.00142488889	0.000796	0	0	0	0	0	0	1	-360	360;
	22	87	0.00341111111	0.00190488889	0	0	0	0	0	0	1	-360	360;
	24	88	0.00707288889	0.00253733333	0	0	0	0	0	0	1	-360	360;
	25	89	0.00312	0.00174266667	0	0	0	0	0	0	1	-360	360;
	25	90	0.0921911111	0.00330711111	0	0	0	0	0	0	1	-360	360;
	90	91	0.00301333333	0.00108088889	0	0	0	0	0	0	1	-360	360;
	91	92	0.00255022222	0.00142444444	0	0	0	0	0	0	1	-360	360;
	27	93	0.002628	0.001468	0	0	0	0	0	0	1	-360	360;
	28	94	0.00527333333	0.00138844444	0	0	0	0	0	0	1	-360	360;
];

%%-----  OPF Data  -----%%
%% generator cost data
%	1	startup	shutdown	n	x1	y1	...	xn	yn
%	2	startup	shutdown	n	c(n-1)	...	c0
mpc.gencost = [
	2	0	0	3	0	20	0;
	2	0	0	3	0	20	0;
];
